
---------- Begin Simulation Statistics ----------
simSeconds                                  22.021948                       # Number of seconds simulated (Second)
simTicks                                 22021948212000                       # Number of ticks simulated (Tick)
finalTick                                22021948212000                       # Number of ticks from beginning of simulation (restored from checkpoints and never reset) (Tick)
simFreq                                  1000000000000                       # The number of ticks per simulated second ((Tick/Second))
hostSeconds                                   2480.55                       # Real time elapsed on the host (Second)
hostTickRate                               8877843939                       # The number of ticks simulated per host second (ticks/s) ((Tick/Second))
hostMemory                                     734636                       # Number of bytes of host memory used (Byte)
simInsts                                   4024969447                       # Number of instructions simulated (Count)
simOps                                     4024969447                       # Number of ops (including micro ops) simulated (Count)
hostInstRate                                  1622611                       # Simulator instruction rate (inst/s) ((Count/Second))
hostOpRate                                    1622611                       # Simulator op (including micro ops) rate (op/s) ((Count/Second))
system.clk_domain.clock                          1000                       # Clock period in ticks (Tick)
system.clk_domain.voltage_domain.voltage            1                       # Voltage in Volts (Volt)
system.cpu.numCycles                      22021948212                       # Number of cpu cycles simulated (Cycle)
system.cpu.numWorkItemsStarted                      0                       # Number of work items this cpu started (Count)
system.cpu.numWorkItemsCompleted                    0                       # Number of work items this cpu completed (Count)
system.cpu.dcache.demandHits::cpu.data     1340168275                       # number of demand (read+write) hits (Count)
system.cpu.dcache.demandHits::total        1340168275                       # number of demand (read+write) hits (Count)
system.cpu.dcache.overallHits::cpu.data    1340168275                       # number of overall hits (Count)
system.cpu.dcache.overallHits::total       1340168275                       # number of overall hits (Count)
system.cpu.dcache.demandMisses::cpu.data      2268963                       # number of demand (read+write) misses (Count)
system.cpu.dcache.demandMisses::total         2268963                       # number of demand (read+write) misses (Count)
system.cpu.dcache.overallMisses::cpu.data      2268963                       # number of overall misses (Count)
system.cpu.dcache.overallMisses::total        2268963                       # number of overall misses (Count)
system.cpu.dcache.demandMissLatency::cpu.data 561306026000                       # number of demand (read+write) miss ticks (Tick)
system.cpu.dcache.demandMissLatency::total 561306026000                       # number of demand (read+write) miss ticks (Tick)
system.cpu.dcache.overallMissLatency::cpu.data 561306026000                       # number of overall miss ticks (Tick)
system.cpu.dcache.overallMissLatency::total 561306026000                       # number of overall miss ticks (Tick)
system.cpu.dcache.demandAccesses::cpu.data   1342437238                       # number of demand (read+write) accesses (Count)
system.cpu.dcache.demandAccesses::total    1342437238                       # number of demand (read+write) accesses (Count)
system.cpu.dcache.overallAccesses::cpu.data   1342437238                       # number of overall (read+write) accesses (Count)
system.cpu.dcache.overallAccesses::total   1342437238                       # number of overall (read+write) accesses (Count)
system.cpu.dcache.demandMissRate::cpu.data     0.001690                       # miss rate for demand accesses (Ratio)
system.cpu.dcache.demandMissRate::total      0.001690                       # miss rate for demand accesses (Ratio)
system.cpu.dcache.overallMissRate::cpu.data     0.001690                       # miss rate for overall accesses (Ratio)
system.cpu.dcache.overallMissRate::total     0.001690                       # miss rate for overall accesses (Ratio)
system.cpu.dcache.demandAvgMissLatency::cpu.data 247384.389256                       # average overall miss latency in ticks ((Tick/Count))
system.cpu.dcache.demandAvgMissLatency::total 247384.389256                       # average overall miss latency in ticks ((Tick/Count))
system.cpu.dcache.overallAvgMissLatency::cpu.data 247384.389256                       # average overall miss latency ((Tick/Count))
system.cpu.dcache.overallAvgMissLatency::total 247384.389256                       # average overall miss latency ((Tick/Count))
system.cpu.dcache.blockedCycles::no_mshrs            0                       # number of cycles access was blocked (Cycle)
system.cpu.dcache.blockedCycles::no_targets            0                       # number of cycles access was blocked (Cycle)
system.cpu.dcache.blockedCauses::no_mshrs            0                       # number of times access was blocked (Count)
system.cpu.dcache.blockedCauses::no_targets            0                       # number of times access was blocked (Count)
system.cpu.dcache.avgBlocked::no_mshrs            nan                       # average number of cycles each access was blocked ((Cycle/Count))
system.cpu.dcache.avgBlocked::no_targets          nan                       # average number of cycles each access was blocked ((Cycle/Count))
system.cpu.dcache.writebacks::writebacks      2268809                       # number of writebacks (Count)
system.cpu.dcache.writebacks::total           2268809                       # number of writebacks (Count)
system.cpu.dcache.demandMshrMisses::cpu.data      2268963                       # number of demand (read+write) MSHR misses (Count)
system.cpu.dcache.demandMshrMisses::total      2268963                       # number of demand (read+write) MSHR misses (Count)
system.cpu.dcache.overallMshrMisses::cpu.data      2268963                       # number of overall MSHR misses (Count)
system.cpu.dcache.overallMshrMisses::total      2268963                       # number of overall MSHR misses (Count)
system.cpu.dcache.demandMshrMissLatency::cpu.data 552230174000                       # number of demand (read+write) MSHR miss ticks (Tick)
system.cpu.dcache.demandMshrMissLatency::total 552230174000                       # number of demand (read+write) MSHR miss ticks (Tick)
system.cpu.dcache.overallMshrMissLatency::cpu.data 552230174000                       # number of overall MSHR miss ticks (Tick)
system.cpu.dcache.overallMshrMissLatency::total 552230174000                       # number of overall MSHR miss ticks (Tick)
system.cpu.dcache.demandMshrMissRate::cpu.data     0.001690                       # mshr miss ratio for demand accesses (Ratio)
system.cpu.dcache.demandMshrMissRate::total     0.001690                       # mshr miss ratio for demand accesses (Ratio)
system.cpu.dcache.overallMshrMissRate::cpu.data     0.001690                       # mshr miss ratio for overall accesses (Ratio)
system.cpu.dcache.overallMshrMissRate::total     0.001690                       # mshr miss ratio for overall accesses (Ratio)
system.cpu.dcache.demandAvgMshrMissLatency::cpu.data 243384.389256                       # average overall mshr miss latency ((Tick/Count))
system.cpu.dcache.demandAvgMshrMissLatency::total 243384.389256                       # average overall mshr miss latency ((Tick/Count))
system.cpu.dcache.overallAvgMshrMissLatency::cpu.data 243384.389256                       # average overall mshr miss latency ((Tick/Count))
system.cpu.dcache.overallAvgMshrMissLatency::total 243384.389256                       # average overall mshr miss latency ((Tick/Count))
system.cpu.dcache.replacements                2268923                       # number of replacements (Count)
system.cpu.dcache.ReadReq.hits::cpu.data    834487001                       # number of ReadReq hits (Count)
system.cpu.dcache.ReadReq.hits::total       834487001                       # number of ReadReq hits (Count)
system.cpu.dcache.ReadReq.misses::cpu.data          195                       # number of ReadReq misses (Count)
system.cpu.dcache.ReadReq.misses::total           195                       # number of ReadReq misses (Count)
system.cpu.dcache.ReadReq.missLatency::cpu.data     28789000                       # number of ReadReq miss ticks (Tick)
system.cpu.dcache.ReadReq.missLatency::total     28789000                       # number of ReadReq miss ticks (Tick)
system.cpu.dcache.ReadReq.accesses::cpu.data    834487196                       # number of ReadReq accesses(hits+misses) (Count)
system.cpu.dcache.ReadReq.accesses::total    834487196                       # number of ReadReq accesses(hits+misses) (Count)
system.cpu.dcache.ReadReq.missRate::cpu.data     0.000000                       # miss rate for ReadReq accesses (Ratio)
system.cpu.dcache.ReadReq.missRate::total     0.000000                       # miss rate for ReadReq accesses (Ratio)
system.cpu.dcache.ReadReq.avgMissLatency::cpu.data 147635.897436                       # average ReadReq miss latency ((Tick/Count))
system.cpu.dcache.ReadReq.avgMissLatency::total 147635.897436                       # average ReadReq miss latency ((Tick/Count))
system.cpu.dcache.ReadReq.mshrMisses::cpu.data          195                       # number of ReadReq MSHR misses (Count)
system.cpu.dcache.ReadReq.mshrMisses::total          195                       # number of ReadReq MSHR misses (Count)
system.cpu.dcache.ReadReq.mshrMissLatency::cpu.data     28009000                       # number of ReadReq MSHR miss ticks (Tick)
system.cpu.dcache.ReadReq.mshrMissLatency::total     28009000                       # number of ReadReq MSHR miss ticks (Tick)
system.cpu.dcache.ReadReq.mshrMissRate::cpu.data     0.000000                       # mshr miss rate for ReadReq accesses (Ratio)
system.cpu.dcache.ReadReq.mshrMissRate::total     0.000000                       # mshr miss rate for ReadReq accesses (Ratio)
system.cpu.dcache.ReadReq.avgMshrMissLatency::cpu.data 143635.897436                       # average ReadReq mshr miss latency ((Tick/Count))
system.cpu.dcache.ReadReq.avgMshrMissLatency::total 143635.897436                       # average ReadReq mshr miss latency ((Tick/Count))
system.cpu.dcache.WriteReq.hits::cpu.data    505681274                       # number of WriteReq hits (Count)
system.cpu.dcache.WriteReq.hits::total      505681274                       # number of WriteReq hits (Count)
system.cpu.dcache.WriteReq.misses::cpu.data      2268768                       # number of WriteReq misses (Count)
system.cpu.dcache.WriteReq.misses::total      2268768                       # number of WriteReq misses (Count)
system.cpu.dcache.WriteReq.missLatency::cpu.data 561277237000                       # number of WriteReq miss ticks (Tick)
system.cpu.dcache.WriteReq.missLatency::total 561277237000                       # number of WriteReq miss ticks (Tick)
system.cpu.dcache.WriteReq.accesses::cpu.data    507950042                       # number of WriteReq accesses(hits+misses) (Count)
system.cpu.dcache.WriteReq.accesses::total    507950042                       # number of WriteReq accesses(hits+misses) (Count)
system.cpu.dcache.WriteReq.missRate::cpu.data     0.004467                       # miss rate for WriteReq accesses (Ratio)
system.cpu.dcache.WriteReq.missRate::total     0.004467                       # miss rate for WriteReq accesses (Ratio)
system.cpu.dcache.WriteReq.avgMissLatency::cpu.data 247392.962612                       # average WriteReq miss latency ((Tick/Count))
system.cpu.dcache.WriteReq.avgMissLatency::total 247392.962612                       # average WriteReq miss latency ((Tick/Count))
system.cpu.dcache.WriteReq.mshrMisses::cpu.data      2268768                       # number of WriteReq MSHR misses (Count)
system.cpu.dcache.WriteReq.mshrMisses::total      2268768                       # number of WriteReq MSHR misses (Count)
system.cpu.dcache.WriteReq.mshrMissLatency::cpu.data 552202165000                       # number of WriteReq MSHR miss ticks (Tick)
system.cpu.dcache.WriteReq.mshrMissLatency::total 552202165000                       # number of WriteReq MSHR miss ticks (Tick)
system.cpu.dcache.WriteReq.mshrMissRate::cpu.data     0.004467                       # mshr miss rate for WriteReq accesses (Ratio)
system.cpu.dcache.WriteReq.mshrMissRate::total     0.004467                       # mshr miss rate for WriteReq accesses (Ratio)
system.cpu.dcache.WriteReq.avgMshrMissLatency::cpu.data 243392.962612                       # average WriteReq mshr miss latency ((Tick/Count))
system.cpu.dcache.WriteReq.avgMshrMissLatency::total 243392.962612                       # average WriteReq mshr miss latency ((Tick/Count))
system.cpu.dcache.power_state.pwrStateResidencyTicks::UNDEFINED 22021948212000                       # Cumulative time (in ticks) in various power states (Tick)
system.cpu.dcache.tags.tagsInUse            31.999987                       # Average ticks per tags in use ((Tick/Count))
system.cpu.dcache.tags.totalRefs           1342437238                       # Total number of references to valid blocks. (Count)
system.cpu.dcache.tags.sampledRefs            2268955                       # Sample count of references to valid blocks. (Count)
system.cpu.dcache.tags.avgRefs             591.654413                       # Average number of references to valid blocks. ((Count/Count))
system.cpu.dcache.tags.warmupTick              502000                       # The tick when the warmup percentage was hit. (Tick)
system.cpu.dcache.tags.occupancies::cpu.data    31.999987                       # Average occupied blocks per tick, per requestor ((Count/Tick))
system.cpu.dcache.tags.avgOccs::cpu.data     1.000000                       # Average percentage of cache occupancy ((Ratio/Tick))
system.cpu.dcache.tags.avgOccs::total        1.000000                       # Average percentage of cache occupancy ((Ratio/Tick))
system.cpu.dcache.tags.occupanciesTaskId::1024           32                       # Occupied blocks per task id (Count)
system.cpu.dcache.tags.ageTaskId_1024::0            1                       # Occupied blocks per task id, per block age (Count)
system.cpu.dcache.tags.ageTaskId_1024::1           10                       # Occupied blocks per task id, per block age (Count)
system.cpu.dcache.tags.ageTaskId_1024::2           10                       # Occupied blocks per task id, per block age (Count)
system.cpu.dcache.tags.ageTaskId_1024::4           11                       # Occupied blocks per task id, per block age (Count)
system.cpu.dcache.tags.ratioOccsTaskId::1024            1                       # Ratio of occupied blocks and all blocks, per task id (Ratio)
system.cpu.dcache.tags.tagAccesses        10741766859                       # Number of tag accesses (Count)
system.cpu.dcache.tags.dataAccesses       10741766859                       # Number of data accesses (Count)
system.cpu.dcache.tags.power_state.pwrStateResidencyTicks::UNDEFINED 22021948212000                       # Cumulative time (in ticks) in various power states (Tick)
system.cpu.exec_context.thread_0.numInsts   4024969447                       # Number of instructions committed (Count)
system.cpu.exec_context.thread_0.numOps    4024969447                       # Number of ops (including micro ops) committed (Count)
system.cpu.exec_context.thread_0.numIntAluAccesses   3952406425                       # Number of integer alu accesses (Count)
system.cpu.exec_context.thread_0.numFpAluAccesses           18                       # Number of float alu accesses (Count)
system.cpu.exec_context.thread_0.numVecAluAccesses            0                       # Number of vector alu accesses (Count)
system.cpu.exec_context.thread_0.numCallsReturns    108845892                       # Number of times a function call or return occured (Count)
system.cpu.exec_context.thread_0.numCondCtrlInsts    543061877                       # Number of instructions that are conditional controls (Count)
system.cpu.exec_context.thread_0.numIntInsts   3952406425                       # Number of integer instructions (Count)
system.cpu.exec_context.thread_0.numFpInsts           18                       # Number of float instructions (Count)
system.cpu.exec_context.thread_0.numVecInsts            0                       # Number of vector instructions (Count)
system.cpu.exec_context.thread_0.numIntRegReads   7175666526                       # Number of times the integer registers were read (Count)
system.cpu.exec_context.thread_0.numIntRegWrites   3988685632                       # Number of times the integer registers were written (Count)
system.cpu.exec_context.thread_0.numFpRegReads           18                       # Number of times the floating registers were read (Count)
system.cpu.exec_context.thread_0.numFpRegWrites            0                       # Number of times the floating registers were written (Count)
system.cpu.exec_context.thread_0.numVecRegReads            0                       # Number of times the vector registers were read (Count)
system.cpu.exec_context.thread_0.numVecRegWrites            0                       # Number of times the vector registers were written (Count)
system.cpu.exec_context.thread_0.numVecPredRegReads            0                       # Number of times the predicate registers were read (Count)
system.cpu.exec_context.thread_0.numVecPredRegWrites            0                       # Number of times the predicate registers were written (Count)
system.cpu.exec_context.thread_0.numMiscRegReads            0                       # Number of times the Misc registers were read (Count)
system.cpu.exec_context.thread_0.numMiscRegWrites            0                       # Number of times the Misc registers were written (Count)
system.cpu.exec_context.thread_0.numMemRefs   1342438217                       # Number of memory refs (Count)
system.cpu.exec_context.thread_0.numLoadInsts    834487196                       # Number of load instructions (Count)
system.cpu.exec_context.thread_0.numStoreInsts    507951021                       # Number of store instructions (Count)
system.cpu.exec_context.thread_0.numIdleCycles            0                       # Number of idle cycles (Cycle)
system.cpu.exec_context.thread_0.numBusyCycles  22021948212                       # Number of busy cycles (Cycle)
system.cpu.exec_context.thread_0.notIdleFraction            1                       # Percentage of non-idle cycles (Ratio)
system.cpu.exec_context.thread_0.idleFraction            0                       # Percentage of idle cycles (Ratio)
system.cpu.exec_context.thread_0.numBranches    651907858                       # Number of branches fetched (Count)
system.cpu.exec_context.thread_0.statExecutedInstType::No_OpClass            0      0.00%      0.00% # Class of executed instruction. (Count)
system.cpu.exec_context.thread_0.statExecutedInstType::IntAlu   2682532217     66.65%     66.65% # Class of executed instruction. (Count)
system.cpu.exec_context.thread_0.statExecutedInstType::IntMult            0      0.00%     66.65% # Class of executed instruction. (Count)
system.cpu.exec_context.thread_0.statExecutedInstType::IntDiv            0      0.00%     66.65% # Class of executed instruction. (Count)
system.cpu.exec_context.thread_0.statExecutedInstType::FloatAdd            0      0.00%     66.65% # Class of executed instruction. (Count)
system.cpu.exec_context.thread_0.statExecutedInstType::FloatCmp            0      0.00%     66.65% # Class of executed instruction. (Count)
system.cpu.exec_context.thread_0.statExecutedInstType::FloatCvt            0      0.00%     66.65% # Class of executed instruction. (Count)
system.cpu.exec_context.thread_0.statExecutedInstType::FloatMult            0      0.00%     66.65% # Class of executed instruction. (Count)
system.cpu.exec_context.thread_0.statExecutedInstType::FloatMultAcc            0      0.00%     66.65% # Class of executed instruction. (Count)
system.cpu.exec_context.thread_0.statExecutedInstType::FloatDiv            0      0.00%     66.65% # Class of executed instruction. (Count)
system.cpu.exec_context.thread_0.statExecutedInstType::FloatMisc            0      0.00%     66.65% # Class of executed instruction. (Count)
system.cpu.exec_context.thread_0.statExecutedInstType::FloatSqrt            0      0.00%     66.65% # Class of executed instruction. (Count)
system.cpu.exec_context.thread_0.statExecutedInstType::SimdAdd            0      0.00%     66.65% # Class of executed instruction. (Count)
system.cpu.exec_context.thread_0.statExecutedInstType::SimdAddAcc            0      0.00%     66.65% # Class of executed instruction. (Count)
system.cpu.exec_context.thread_0.statExecutedInstType::SimdAlu            0      0.00%     66.65% # Class of executed instruction. (Count)
system.cpu.exec_context.thread_0.statExecutedInstType::SimdCmp            0      0.00%     66.65% # Class of executed instruction. (Count)
system.cpu.exec_context.thread_0.statExecutedInstType::SimdCvt            0      0.00%     66.65% # Class of executed instruction. (Count)
system.cpu.exec_context.thread_0.statExecutedInstType::SimdMisc            0      0.00%     66.65% # Class of executed instruction. (Count)
system.cpu.exec_context.thread_0.statExecutedInstType::SimdMult            0      0.00%     66.65% # Class of executed instruction. (Count)
system.cpu.exec_context.thread_0.statExecutedInstType::SimdMultAcc            0      0.00%     66.65% # Class of executed instruction. (Count)
system.cpu.exec_context.thread_0.statExecutedInstType::SimdShift            0      0.00%     66.65% # Class of executed instruction. (Count)
system.cpu.exec_context.thread_0.statExecutedInstType::SimdShiftAcc            0      0.00%     66.65% # Class of executed instruction. (Count)
system.cpu.exec_context.thread_0.statExecutedInstType::SimdDiv            0      0.00%     66.65% # Class of executed instruction. (Count)
system.cpu.exec_context.thread_0.statExecutedInstType::SimdSqrt            0      0.00%     66.65% # Class of executed instruction. (Count)
system.cpu.exec_context.thread_0.statExecutedInstType::SimdFloatAdd            0      0.00%     66.65% # Class of executed instruction. (Count)
system.cpu.exec_context.thread_0.statExecutedInstType::SimdFloatAlu            0      0.00%     66.65% # Class of executed instruction. (Count)
system.cpu.exec_context.thread_0.statExecutedInstType::SimdFloatCmp            0      0.00%     66.65% # Class of executed instruction. (Count)
system.cpu.exec_context.thread_0.statExecutedInstType::SimdFloatCvt            0      0.00%     66.65% # Class of executed instruction. (Count)
system.cpu.exec_context.thread_0.statExecutedInstType::SimdFloatDiv            0      0.00%     66.65% # Class of executed instruction. (Count)
system.cpu.exec_context.thread_0.statExecutedInstType::SimdFloatMisc            0      0.00%     66.65% # Class of executed instruction. (Count)
system.cpu.exec_context.thread_0.statExecutedInstType::SimdFloatMult            0      0.00%     66.65% # Class of executed instruction. (Count)
system.cpu.exec_context.thread_0.statExecutedInstType::SimdFloatMultAcc            0      0.00%     66.65% # Class of executed instruction. (Count)
system.cpu.exec_context.thread_0.statExecutedInstType::SimdFloatSqrt            0      0.00%     66.65% # Class of executed instruction. (Count)
system.cpu.exec_context.thread_0.statExecutedInstType::SimdReduceAdd            0      0.00%     66.65% # Class of executed instruction. (Count)
system.cpu.exec_context.thread_0.statExecutedInstType::SimdReduceAlu            0      0.00%     66.65% # Class of executed instruction. (Count)
system.cpu.exec_context.thread_0.statExecutedInstType::SimdReduceCmp            0      0.00%     66.65% # Class of executed instruction. (Count)
system.cpu.exec_context.thread_0.statExecutedInstType::SimdFloatReduceAdd            0      0.00%     66.65% # Class of executed instruction. (Count)
system.cpu.exec_context.thread_0.statExecutedInstType::SimdFloatReduceCmp            0      0.00%     66.65% # Class of executed instruction. (Count)
system.cpu.exec_context.thread_0.statExecutedInstType::SimdAes            0      0.00%     66.65% # Class of executed instruction. (Count)
system.cpu.exec_context.thread_0.statExecutedInstType::SimdAesMix            0      0.00%     66.65% # Class of executed instruction. (Count)
system.cpu.exec_context.thread_0.statExecutedInstType::SimdSha1Hash            0      0.00%     66.65% # Class of executed instruction. (Count)
system.cpu.exec_context.thread_0.statExecutedInstType::SimdSha1Hash2            0      0.00%     66.65% # Class of executed instruction. (Count)
system.cpu.exec_context.thread_0.statExecutedInstType::SimdSha256Hash            0      0.00%     66.65% # Class of executed instruction. (Count)
system.cpu.exec_context.thread_0.statExecutedInstType::SimdSha256Hash2            0      0.00%     66.65% # Class of executed instruction. (Count)
system.cpu.exec_context.thread_0.statExecutedInstType::SimdShaSigma2            0      0.00%     66.65% # Class of executed instruction. (Count)
system.cpu.exec_context.thread_0.statExecutedInstType::SimdShaSigma3            0      0.00%     66.65% # Class of executed instruction. (Count)
system.cpu.exec_context.thread_0.statExecutedInstType::SimdPredAlu            0      0.00%     66.65% # Class of executed instruction. (Count)
system.cpu.exec_context.thread_0.statExecutedInstType::MemRead    834487196     20.73%     87.38% # Class of executed instruction. (Count)
system.cpu.exec_context.thread_0.statExecutedInstType::MemWrite    507951003     12.62%    100.00% # Class of executed instruction. (Count)
system.cpu.exec_context.thread_0.statExecutedInstType::FloatMemRead            0      0.00%    100.00% # Class of executed instruction. (Count)
system.cpu.exec_context.thread_0.statExecutedInstType::FloatMemWrite           18      0.00%    100.00% # Class of executed instruction. (Count)
system.cpu.exec_context.thread_0.statExecutedInstType::IprAccess            0      0.00%    100.00% # Class of executed instruction. (Count)
system.cpu.exec_context.thread_0.statExecutedInstType::InstPrefetch            0      0.00%    100.00% # Class of executed instruction. (Count)
system.cpu.exec_context.thread_0.statExecutedInstType::total   4024970434                       # Class of executed instruction. (Count)
system.cpu.icache.demandHits::cpu.inst     4024969924                       # number of demand (read+write) hits (Count)
system.cpu.icache.demandHits::total        4024969924                       # number of demand (read+write) hits (Count)
system.cpu.icache.overallHits::cpu.inst    4024969924                       # number of overall hits (Count)
system.cpu.icache.overallHits::total       4024969924                       # number of overall hits (Count)
system.cpu.icache.demandMisses::cpu.inst          511                       # number of demand (read+write) misses (Count)
system.cpu.icache.demandMisses::total             511                       # number of demand (read+write) misses (Count)
system.cpu.icache.overallMisses::cpu.inst          511                       # number of overall misses (Count)
system.cpu.icache.overallMisses::total            511                       # number of overall misses (Count)
system.cpu.icache.demandMissLatency::cpu.inst     89394000                       # number of demand (read+write) miss ticks (Tick)
system.cpu.icache.demandMissLatency::total     89394000                       # number of demand (read+write) miss ticks (Tick)
system.cpu.icache.overallMissLatency::cpu.inst     89394000                       # number of overall miss ticks (Tick)
system.cpu.icache.overallMissLatency::total     89394000                       # number of overall miss ticks (Tick)
system.cpu.icache.demandAccesses::cpu.inst   4024970435                       # number of demand (read+write) accesses (Count)
system.cpu.icache.demandAccesses::total    4024970435                       # number of demand (read+write) accesses (Count)
system.cpu.icache.overallAccesses::cpu.inst   4024970435                       # number of overall (read+write) accesses (Count)
system.cpu.icache.overallAccesses::total   4024970435                       # number of overall (read+write) accesses (Count)
system.cpu.icache.demandMissRate::cpu.inst     0.000000                       # miss rate for demand accesses (Ratio)
system.cpu.icache.demandMissRate::total      0.000000                       # miss rate for demand accesses (Ratio)
system.cpu.icache.overallMissRate::cpu.inst     0.000000                       # miss rate for overall accesses (Ratio)
system.cpu.icache.overallMissRate::total     0.000000                       # miss rate for overall accesses (Ratio)
system.cpu.icache.demandAvgMissLatency::cpu.inst 174939.334638                       # average overall miss latency in ticks ((Tick/Count))
system.cpu.icache.demandAvgMissLatency::total 174939.334638                       # average overall miss latency in ticks ((Tick/Count))
system.cpu.icache.overallAvgMissLatency::cpu.inst 174939.334638                       # average overall miss latency ((Tick/Count))
system.cpu.icache.overallAvgMissLatency::total 174939.334638                       # average overall miss latency ((Tick/Count))
system.cpu.icache.blockedCycles::no_mshrs            0                       # number of cycles access was blocked (Cycle)
system.cpu.icache.blockedCycles::no_targets            0                       # number of cycles access was blocked (Cycle)
system.cpu.icache.blockedCauses::no_mshrs            0                       # number of times access was blocked (Count)
system.cpu.icache.blockedCauses::no_targets            0                       # number of times access was blocked (Count)
system.cpu.icache.avgBlocked::no_mshrs            nan                       # average number of cycles each access was blocked ((Cycle/Count))
system.cpu.icache.avgBlocked::no_targets          nan                       # average number of cycles each access was blocked ((Cycle/Count))
system.cpu.icache.demandMshrMisses::cpu.inst          511                       # number of demand (read+write) MSHR misses (Count)
system.cpu.icache.demandMshrMisses::total          511                       # number of demand (read+write) MSHR misses (Count)
system.cpu.icache.overallMshrMisses::cpu.inst          511                       # number of overall MSHR misses (Count)
system.cpu.icache.overallMshrMisses::total          511                       # number of overall MSHR misses (Count)
system.cpu.icache.demandMshrMissLatency::cpu.inst     87350000                       # number of demand (read+write) MSHR miss ticks (Tick)
system.cpu.icache.demandMshrMissLatency::total     87350000                       # number of demand (read+write) MSHR miss ticks (Tick)
system.cpu.icache.overallMshrMissLatency::cpu.inst     87350000                       # number of overall MSHR miss ticks (Tick)
system.cpu.icache.overallMshrMissLatency::total     87350000                       # number of overall MSHR miss ticks (Tick)
system.cpu.icache.demandMshrMissRate::cpu.inst     0.000000                       # mshr miss ratio for demand accesses (Ratio)
system.cpu.icache.demandMshrMissRate::total     0.000000                       # mshr miss ratio for demand accesses (Ratio)
system.cpu.icache.overallMshrMissRate::cpu.inst     0.000000                       # mshr miss ratio for overall accesses (Ratio)
system.cpu.icache.overallMshrMissRate::total     0.000000                       # mshr miss ratio for overall accesses (Ratio)
system.cpu.icache.demandAvgMshrMissLatency::cpu.inst 170939.334638                       # average overall mshr miss latency ((Tick/Count))
system.cpu.icache.demandAvgMshrMissLatency::total 170939.334638                       # average overall mshr miss latency ((Tick/Count))
system.cpu.icache.overallAvgMshrMissLatency::cpu.inst 170939.334638                       # average overall mshr miss latency ((Tick/Count))
system.cpu.icache.overallAvgMshrMissLatency::total 170939.334638                       # average overall mshr miss latency ((Tick/Count))
system.cpu.icache.replacements                    495                       # number of replacements (Count)
system.cpu.icache.ReadReq.hits::cpu.inst   4024969924                       # number of ReadReq hits (Count)
system.cpu.icache.ReadReq.hits::total      4024969924                       # number of ReadReq hits (Count)
system.cpu.icache.ReadReq.misses::cpu.inst          511                       # number of ReadReq misses (Count)
system.cpu.icache.ReadReq.misses::total           511                       # number of ReadReq misses (Count)
system.cpu.icache.ReadReq.missLatency::cpu.inst     89394000                       # number of ReadReq miss ticks (Tick)
system.cpu.icache.ReadReq.missLatency::total     89394000                       # number of ReadReq miss ticks (Tick)
system.cpu.icache.ReadReq.accesses::cpu.inst   4024970435                       # number of ReadReq accesses(hits+misses) (Count)
system.cpu.icache.ReadReq.accesses::total   4024970435                       # number of ReadReq accesses(hits+misses) (Count)
system.cpu.icache.ReadReq.missRate::cpu.inst     0.000000                       # miss rate for ReadReq accesses (Ratio)
system.cpu.icache.ReadReq.missRate::total     0.000000                       # miss rate for ReadReq accesses (Ratio)
system.cpu.icache.ReadReq.avgMissLatency::cpu.inst 174939.334638                       # average ReadReq miss latency ((Tick/Count))
system.cpu.icache.ReadReq.avgMissLatency::total 174939.334638                       # average ReadReq miss latency ((Tick/Count))
system.cpu.icache.ReadReq.mshrMisses::cpu.inst          511                       # number of ReadReq MSHR misses (Count)
system.cpu.icache.ReadReq.mshrMisses::total          511                       # number of ReadReq MSHR misses (Count)
system.cpu.icache.ReadReq.mshrMissLatency::cpu.inst     87350000                       # number of ReadReq MSHR miss ticks (Tick)
system.cpu.icache.ReadReq.mshrMissLatency::total     87350000                       # number of ReadReq MSHR miss ticks (Tick)
system.cpu.icache.ReadReq.mshrMissRate::cpu.inst     0.000000                       # mshr miss rate for ReadReq accesses (Ratio)
system.cpu.icache.ReadReq.mshrMissRate::total     0.000000                       # mshr miss rate for ReadReq accesses (Ratio)
system.cpu.icache.ReadReq.avgMshrMissLatency::cpu.inst 170939.334638                       # average ReadReq mshr miss latency ((Tick/Count))
system.cpu.icache.ReadReq.avgMshrMissLatency::total 170939.334638                       # average ReadReq mshr miss latency ((Tick/Count))
system.cpu.icache.power_state.pwrStateResidencyTicks::UNDEFINED 22021948212000                       # Cumulative time (in ticks) in various power states (Tick)
system.cpu.icache.tags.tagsInUse            15.999996                       # Average ticks per tags in use ((Tick/Count))
system.cpu.icache.tags.totalRefs           4024970435                       # Total number of references to valid blocks. (Count)
system.cpu.icache.tags.sampledRefs                511                       # Sample count of references to valid blocks. (Count)
system.cpu.icache.tags.avgRefs           7876654.471624                       # Average number of references to valid blocks. ((Count/Count))
system.cpu.icache.tags.warmupTick              243000                       # The tick when the warmup percentage was hit. (Tick)
system.cpu.icache.tags.occupancies::cpu.inst    15.999996                       # Average occupied blocks per tick, per requestor ((Count/Tick))
system.cpu.icache.tags.avgOccs::cpu.inst     1.000000                       # Average percentage of cache occupancy ((Ratio/Tick))
system.cpu.icache.tags.avgOccs::total        1.000000                       # Average percentage of cache occupancy ((Ratio/Tick))
system.cpu.icache.tags.occupanciesTaskId::1024           16                       # Occupied blocks per task id (Count)
system.cpu.icache.tags.ageTaskId_1024::4           16                       # Occupied blocks per task id, per block age (Count)
system.cpu.icache.tags.ratioOccsTaskId::1024            1                       # Ratio of occupied blocks and all blocks, per task id (Ratio)
system.cpu.icache.tags.tagAccesses        32199763991                       # Number of tag accesses (Count)
system.cpu.icache.tags.dataAccesses       32199763991                       # Number of data accesses (Count)
system.cpu.icache.tags.power_state.pwrStateResidencyTicks::UNDEFINED 22021948212000                       # Cumulative time (in ticks) in various power states (Tick)
system.cpu.power_state.pwrStateResidencyTicks::ON 22021948212000                       # Cumulative time (in ticks) in various power states (Tick)
system.cpu.thread_0.numInsts                        0                       # Number of Instructions committed (Count)
system.cpu.thread_0.numOps                          0                       # Number of Ops committed (Count)
system.cpu.thread_0.numMemRefs                      0                       # Number of Memory References (Count)
system.cpu.workload.numSyscalls                     8                       # Number of system calls (Count)
system.l2bus.transDist::ReadResp                  706                       # Transaction distribution (Count)
system.l2bus.transDist::WritebackDirty        4537318                       # Transaction distribution (Count)
system.l2bus.transDist::CleanEvict               2135                       # Transaction distribution (Count)
system.l2bus.transDist::UpgradeReq                  8                       # Transaction distribution (Count)
system.l2bus.transDist::UpgradeResp                 8                       # Transaction distribution (Count)
system.l2bus.transDist::ReadExReq             2268760                       # Transaction distribution (Count)
system.l2bus.transDist::ReadExResp            2268760                       # Transaction distribution (Count)
system.l2bus.transDist::ReadSharedReq             706                       # Transaction distribution (Count)
system.l2bus.pktCount_system.cpu.icache.mem_side_port::system.l2cache.cpu_side_port         1517                       # Packet count per connected requestor and responder (Count)
system.l2bus.pktCount_system.cpu.dcache.mem_side_port::system.l2cache.cpu_side_port      6806849                       # Packet count per connected requestor and responder (Count)
system.l2bus.pktCount::total                  6808366                       # Packet count per connected requestor and responder (Count)
system.l2bus.pktSize_system.cpu.icache.mem_side_port::system.l2cache.cpu_side_port        32704                       # Cumulative packet size per connected requestor and responder (Byte)
system.l2bus.pktSize_system.cpu.dcache.mem_side_port::system.l2cache.cpu_side_port    290416896                       # Cumulative packet size per connected requestor and responder (Byte)
system.l2bus.pktSize::total                 290449600                       # Cumulative packet size per connected requestor and responder (Byte)
system.l2bus.snoops                           2270035                       # Total snoops (Count)
system.l2bus.snoopTraffic                   145184576                       # Total snoop traffic (Byte)
system.l2bus.snoopFanout::samples             4539509                       # Request fanout histogram (Count)
system.l2bus.snoopFanout::mean               0.000239                       # Request fanout histogram (Count)
system.l2bus.snoopFanout::stdev              0.015472                       # Request fanout histogram (Count)
system.l2bus.snoopFanout::underflows                0      0.00%      0.00% # Request fanout histogram (Count)
system.l2bus.snoopFanout::0                   4538422     99.98%     99.98% # Request fanout histogram (Count)
system.l2bus.snoopFanout::1                      1087      0.02%    100.00% # Request fanout histogram (Count)
system.l2bus.snoopFanout::2                         0      0.00%    100.00% # Request fanout histogram (Count)
system.l2bus.snoopFanout::overflows                 0      0.00%    100.00% # Request fanout histogram (Count)
system.l2bus.snoopFanout::min_value                 0                       # Request fanout histogram (Count)
system.l2bus.snoopFanout::max_value                 1                       # Request fanout histogram (Count)
system.l2bus.snoopFanout::total               4539509                       # Request fanout histogram (Count)
system.l2bus.power_state.pwrStateResidencyTicks::UNDEFINED 22021948212000                       # Cumulative time (in ticks) in various power states (Tick)
system.l2bus.reqLayer0.occupancy           9076510000                       # Layer occupancy (ticks) (Tick)
system.l2bus.reqLayer0.utilization                0.0                       # Layer utilization (Ratio)
system.l2bus.respLayer0.occupancy             1533000                       # Layer occupancy (ticks) (Tick)
system.l2bus.respLayer0.utilization               0.0                       # Layer utilization (Ratio)
system.l2bus.respLayer1.occupancy          6806873000                       # Layer occupancy (ticks) (Tick)
system.l2bus.respLayer1.utilization               0.0                       # Layer utilization (Ratio)
system.l2bus.snoop_filter.totRequests         4538892                       # Total number of requests made to the snoop filter. (Count)
system.l2bus.snoop_filter.hitSingleRequests      2269426                       # Number of requests hitting in the snoop filter with a single holder of the requested data. (Count)
system.l2bus.snoop_filter.hitMultiRequests            2                       # Number of requests hitting in the snoop filter with multiple (>1) holders of the requested data. (Count)
system.l2bus.snoop_filter.totSnoops              1085                       # Total number of snoops made to the snoop filter. (Count)
system.l2bus.snoop_filter.hitSingleSnoops         1085                       # Number of snoops hitting in the snoop filter with a single holder of the requested data. (Count)
system.l2bus.snoop_filter.hitMultiSnoops            0                       # Number of snoops hitting in the snoop filter with multiple (>1) holders of the requested data. (Count)
system.l2cache.demandHits::cpu.inst               145                       # number of demand (read+write) hits (Count)
system.l2cache.demandHits::cpu.data                84                       # number of demand (read+write) hits (Count)
system.l2cache.demandHits::total                  229                       # number of demand (read+write) hits (Count)
system.l2cache.overallHits::cpu.inst              145                       # number of overall hits (Count)
system.l2cache.overallHits::cpu.data               84                       # number of overall hits (Count)
system.l2cache.overallHits::total                 229                       # number of overall hits (Count)
system.l2cache.demandMisses::cpu.inst             366                       # number of demand (read+write) misses (Count)
system.l2cache.demandMisses::cpu.data         2268871                       # number of demand (read+write) misses (Count)
system.l2cache.demandMisses::total            2269237                       # number of demand (read+write) misses (Count)
system.l2cache.overallMisses::cpu.inst            366                       # number of overall misses (Count)
system.l2cache.overallMisses::cpu.data        2268871                       # number of overall misses (Count)
system.l2cache.overallMisses::total           2269237                       # number of overall misses (Count)
system.l2cache.demandMissLatency::cpu.inst     82330000                       # number of demand (read+write) miss ticks (Tick)
system.l2cache.demandMissLatency::cpu.data 540883787000                       # number of demand (read+write) miss ticks (Tick)
system.l2cache.demandMissLatency::total  540966117000                       # number of demand (read+write) miss ticks (Tick)
system.l2cache.overallMissLatency::cpu.inst     82330000                       # number of overall miss ticks (Tick)
system.l2cache.overallMissLatency::cpu.data 540883787000                       # number of overall miss ticks (Tick)
system.l2cache.overallMissLatency::total 540966117000                       # number of overall miss ticks (Tick)
system.l2cache.demandAccesses::cpu.inst           511                       # number of demand (read+write) accesses (Count)
system.l2cache.demandAccesses::cpu.data       2268955                       # number of demand (read+write) accesses (Count)
system.l2cache.demandAccesses::total          2269466                       # number of demand (read+write) accesses (Count)
system.l2cache.overallAccesses::cpu.inst          511                       # number of overall (read+write) accesses (Count)
system.l2cache.overallAccesses::cpu.data      2268955                       # number of overall (read+write) accesses (Count)
system.l2cache.overallAccesses::total         2269466                       # number of overall (read+write) accesses (Count)
system.l2cache.demandMissRate::cpu.inst      0.716243                       # miss rate for demand accesses (Ratio)
system.l2cache.demandMissRate::cpu.data      0.999963                       # miss rate for demand accesses (Ratio)
system.l2cache.demandMissRate::total         0.999899                       # miss rate for demand accesses (Ratio)
system.l2cache.overallMissRate::cpu.inst     0.716243                       # miss rate for overall accesses (Ratio)
system.l2cache.overallMissRate::cpu.data     0.999963                       # miss rate for overall accesses (Ratio)
system.l2cache.overallMissRate::total        0.999899                       # miss rate for overall accesses (Ratio)
system.l2cache.demandAvgMissLatency::cpu.inst 224945.355191                       # average overall miss latency in ticks ((Tick/Count))
system.l2cache.demandAvgMissLatency::cpu.data 238393.362602                       # average overall miss latency in ticks ((Tick/Count))
system.l2cache.demandAvgMissLatency::total 238391.193604                       # average overall miss latency in ticks ((Tick/Count))
system.l2cache.overallAvgMissLatency::cpu.inst 224945.355191                       # average overall miss latency ((Tick/Count))
system.l2cache.overallAvgMissLatency::cpu.data 238393.362602                       # average overall miss latency ((Tick/Count))
system.l2cache.overallAvgMissLatency::total 238391.193604                       # average overall miss latency ((Tick/Count))
system.l2cache.blockedCycles::no_mshrs              0                       # number of cycles access was blocked (Cycle)
system.l2cache.blockedCycles::no_targets            0                       # number of cycles access was blocked (Cycle)
system.l2cache.blockedCauses::no_mshrs              0                       # number of times access was blocked (Count)
system.l2cache.blockedCauses::no_targets            0                       # number of times access was blocked (Count)
system.l2cache.avgBlocked::no_mshrs               nan                       # average number of cycles each access was blocked ((Cycle/Count))
system.l2cache.avgBlocked::no_targets             nan                       # average number of cycles each access was blocked ((Cycle/Count))
system.l2cache.writebacks::writebacks         2268507                       # number of writebacks (Count)
system.l2cache.writebacks::total              2268507                       # number of writebacks (Count)
system.l2cache.demandMshrMisses::cpu.inst          366                       # number of demand (read+write) MSHR misses (Count)
system.l2cache.demandMshrMisses::cpu.data      2268871                       # number of demand (read+write) MSHR misses (Count)
system.l2cache.demandMshrMisses::total        2269237                       # number of demand (read+write) MSHR misses (Count)
system.l2cache.overallMshrMisses::cpu.inst          366                       # number of overall MSHR misses (Count)
system.l2cache.overallMshrMisses::cpu.data      2268871                       # number of overall MSHR misses (Count)
system.l2cache.overallMshrMisses::total       2269237                       # number of overall MSHR misses (Count)
system.l2cache.demandMshrMissLatency::cpu.inst     76474000                       # number of demand (read+write) MSHR miss ticks (Tick)
system.l2cache.demandMshrMissLatency::cpu.data 504581851000                       # number of demand (read+write) MSHR miss ticks (Tick)
system.l2cache.demandMshrMissLatency::total 504658325000                       # number of demand (read+write) MSHR miss ticks (Tick)
system.l2cache.overallMshrMissLatency::cpu.inst     76474000                       # number of overall MSHR miss ticks (Tick)
system.l2cache.overallMshrMissLatency::cpu.data 504581851000                       # number of overall MSHR miss ticks (Tick)
system.l2cache.overallMshrMissLatency::total 504658325000                       # number of overall MSHR miss ticks (Tick)
system.l2cache.demandMshrMissRate::cpu.inst     0.716243                       # mshr miss ratio for demand accesses (Ratio)
system.l2cache.demandMshrMissRate::cpu.data     0.999963                       # mshr miss ratio for demand accesses (Ratio)
system.l2cache.demandMshrMissRate::total     0.999899                       # mshr miss ratio for demand accesses (Ratio)
system.l2cache.overallMshrMissRate::cpu.inst     0.716243                       # mshr miss ratio for overall accesses (Ratio)
system.l2cache.overallMshrMissRate::cpu.data     0.999963                       # mshr miss ratio for overall accesses (Ratio)
system.l2cache.overallMshrMissRate::total     0.999899                       # mshr miss ratio for overall accesses (Ratio)
system.l2cache.demandAvgMshrMissLatency::cpu.inst 208945.355191                       # average overall mshr miss latency ((Tick/Count))
system.l2cache.demandAvgMshrMissLatency::cpu.data 222393.362602                       # average overall mshr miss latency ((Tick/Count))
system.l2cache.demandAvgMshrMissLatency::total 222391.193604                       # average overall mshr miss latency ((Tick/Count))
system.l2cache.overallAvgMshrMissLatency::cpu.inst 208945.355191                       # average overall mshr miss latency ((Tick/Count))
system.l2cache.overallAvgMshrMissLatency::cpu.data 222393.362602                       # average overall mshr miss latency ((Tick/Count))
system.l2cache.overallAvgMshrMissLatency::total 222391.193604                       # average overall mshr miss latency ((Tick/Count))
system.l2cache.replacements                   2269980                       # number of replacements (Count)
system.l2cache.CleanEvict.mshrMisses::writebacks            4                       # number of CleanEvict MSHR misses (Count)
system.l2cache.CleanEvict.mshrMisses::total            4                       # number of CleanEvict MSHR misses (Count)
system.l2cache.CleanEvict.mshrMissRate::writebacks          inf                       # mshr miss rate for CleanEvict accesses (Ratio)
system.l2cache.CleanEvict.mshrMissRate::total          inf                       # mshr miss rate for CleanEvict accesses (Ratio)
system.l2cache.ReadExReq.hits::cpu.data            16                       # number of ReadExReq hits (Count)
system.l2cache.ReadExReq.hits::total               16                       # number of ReadExReq hits (Count)
system.l2cache.ReadExReq.misses::cpu.data      2268744                       # number of ReadExReq misses (Count)
system.l2cache.ReadExReq.misses::total        2268744                       # number of ReadExReq misses (Count)
system.l2cache.ReadExReq.missLatency::cpu.data 540857917000                       # number of ReadExReq miss ticks (Tick)
system.l2cache.ReadExReq.missLatency::total 540857917000                       # number of ReadExReq miss ticks (Tick)
system.l2cache.ReadExReq.accesses::cpu.data      2268760                       # number of ReadExReq accesses(hits+misses) (Count)
system.l2cache.ReadExReq.accesses::total      2268760                       # number of ReadExReq accesses(hits+misses) (Count)
system.l2cache.ReadExReq.missRate::cpu.data     0.999993                       # miss rate for ReadExReq accesses (Ratio)
system.l2cache.ReadExReq.missRate::total     0.999993                       # miss rate for ReadExReq accesses (Ratio)
system.l2cache.ReadExReq.avgMissLatency::cpu.data 238395.304627                       # average ReadExReq miss latency ((Tick/Count))
system.l2cache.ReadExReq.avgMissLatency::total 238395.304627                       # average ReadExReq miss latency ((Tick/Count))
system.l2cache.ReadExReq.mshrMisses::cpu.data      2268744                       # number of ReadExReq MSHR misses (Count)
system.l2cache.ReadExReq.mshrMisses::total      2268744                       # number of ReadExReq MSHR misses (Count)
system.l2cache.ReadExReq.mshrMissLatency::cpu.data 504558013000                       # number of ReadExReq MSHR miss ticks (Tick)
system.l2cache.ReadExReq.mshrMissLatency::total 504558013000                       # number of ReadExReq MSHR miss ticks (Tick)
system.l2cache.ReadExReq.mshrMissRate::cpu.data     0.999993                       # mshr miss rate for ReadExReq accesses (Ratio)
system.l2cache.ReadExReq.mshrMissRate::total     0.999993                       # mshr miss rate for ReadExReq accesses (Ratio)
system.l2cache.ReadExReq.avgMshrMissLatency::cpu.data 222395.304627                       # average ReadExReq mshr miss latency ((Tick/Count))
system.l2cache.ReadExReq.avgMshrMissLatency::total 222395.304627                       # average ReadExReq mshr miss latency ((Tick/Count))
system.l2cache.ReadSharedReq.hits::cpu.inst          145                       # number of ReadSharedReq hits (Count)
system.l2cache.ReadSharedReq.hits::cpu.data           68                       # number of ReadSharedReq hits (Count)
system.l2cache.ReadSharedReq.hits::total          213                       # number of ReadSharedReq hits (Count)
system.l2cache.ReadSharedReq.misses::cpu.inst          366                       # number of ReadSharedReq misses (Count)
system.l2cache.ReadSharedReq.misses::cpu.data          127                       # number of ReadSharedReq misses (Count)
system.l2cache.ReadSharedReq.misses::total          493                       # number of ReadSharedReq misses (Count)
system.l2cache.ReadSharedReq.missLatency::cpu.inst     82330000                       # number of ReadSharedReq miss ticks (Tick)
system.l2cache.ReadSharedReq.missLatency::cpu.data     25870000                       # number of ReadSharedReq miss ticks (Tick)
system.l2cache.ReadSharedReq.missLatency::total    108200000                       # number of ReadSharedReq miss ticks (Tick)
system.l2cache.ReadSharedReq.accesses::cpu.inst          511                       # number of ReadSharedReq accesses(hits+misses) (Count)
system.l2cache.ReadSharedReq.accesses::cpu.data          195                       # number of ReadSharedReq accesses(hits+misses) (Count)
system.l2cache.ReadSharedReq.accesses::total          706                       # number of ReadSharedReq accesses(hits+misses) (Count)
system.l2cache.ReadSharedReq.missRate::cpu.inst     0.716243                       # miss rate for ReadSharedReq accesses (Ratio)
system.l2cache.ReadSharedReq.missRate::cpu.data     0.651282                       # miss rate for ReadSharedReq accesses (Ratio)
system.l2cache.ReadSharedReq.missRate::total     0.698300                       # miss rate for ReadSharedReq accesses (Ratio)
system.l2cache.ReadSharedReq.avgMissLatency::cpu.inst 224945.355191                       # average ReadSharedReq miss latency ((Tick/Count))
system.l2cache.ReadSharedReq.avgMissLatency::cpu.data 203700.787402                       # average ReadSharedReq miss latency ((Tick/Count))
system.l2cache.ReadSharedReq.avgMissLatency::total 219472.616633                       # average ReadSharedReq miss latency ((Tick/Count))
system.l2cache.ReadSharedReq.mshrMisses::cpu.inst          366                       # number of ReadSharedReq MSHR misses (Count)
system.l2cache.ReadSharedReq.mshrMisses::cpu.data          127                       # number of ReadSharedReq MSHR misses (Count)
system.l2cache.ReadSharedReq.mshrMisses::total          493                       # number of ReadSharedReq MSHR misses (Count)
system.l2cache.ReadSharedReq.mshrMissLatency::cpu.inst     76474000                       # number of ReadSharedReq MSHR miss ticks (Tick)
system.l2cache.ReadSharedReq.mshrMissLatency::cpu.data     23838000                       # number of ReadSharedReq MSHR miss ticks (Tick)
system.l2cache.ReadSharedReq.mshrMissLatency::total    100312000                       # number of ReadSharedReq MSHR miss ticks (Tick)
system.l2cache.ReadSharedReq.mshrMissRate::cpu.inst     0.716243                       # mshr miss rate for ReadSharedReq accesses (Ratio)
system.l2cache.ReadSharedReq.mshrMissRate::cpu.data     0.651282                       # mshr miss rate for ReadSharedReq accesses (Ratio)
system.l2cache.ReadSharedReq.mshrMissRate::total     0.698300                       # mshr miss rate for ReadSharedReq accesses (Ratio)
system.l2cache.ReadSharedReq.avgMshrMissLatency::cpu.inst 208945.355191                       # average ReadSharedReq mshr miss latency ((Tick/Count))
system.l2cache.ReadSharedReq.avgMshrMissLatency::cpu.data 187700.787402                       # average ReadSharedReq mshr miss latency ((Tick/Count))
system.l2cache.ReadSharedReq.avgMshrMissLatency::total 203472.616633                       # average ReadSharedReq mshr miss latency ((Tick/Count))
system.l2cache.UpgradeReq.hits::cpu.data            8                       # number of UpgradeReq hits (Count)
system.l2cache.UpgradeReq.hits::total               8                       # number of UpgradeReq hits (Count)
system.l2cache.UpgradeReq.accesses::cpu.data            8                       # number of UpgradeReq accesses(hits+misses) (Count)
system.l2cache.UpgradeReq.accesses::total            8                       # number of UpgradeReq accesses(hits+misses) (Count)
system.l2cache.WritebackDirty.hits::writebacks      2268809                       # number of WritebackDirty hits (Count)
system.l2cache.WritebackDirty.hits::total      2268809                       # number of WritebackDirty hits (Count)
system.l2cache.WritebackDirty.accesses::writebacks      2268809                       # number of WritebackDirty accesses(hits+misses) (Count)
system.l2cache.WritebackDirty.accesses::total      2268809                       # number of WritebackDirty accesses(hits+misses) (Count)
system.l2cache.power_state.pwrStateResidencyTicks::UNDEFINED 22021948212000                       # Cumulative time (in ticks) in various power states (Tick)
system.l2cache.tags.tagsInUse              255.999533                       # Average ticks per tags in use ((Tick/Count))
system.l2cache.tags.totalRefs                 4538886                       # Total number of references to valid blocks. (Count)
system.l2cache.tags.sampledRefs               2270236                       # Sample count of references to valid blocks. (Count)
system.l2cache.tags.avgRefs                  1.999301                       # Average number of references to valid blocks. ((Count/Count))
system.l2cache.tags.warmupTick                 226000                       # The tick when the warmup percentage was hit. (Tick)
system.l2cache.tags.occupancies::writebacks     0.001630                       # Average occupied blocks per tick, per requestor ((Count/Tick))
system.l2cache.tags.occupancies::cpu.inst     0.010315                       # Average occupied blocks per tick, per requestor ((Count/Tick))
system.l2cache.tags.occupancies::cpu.data   255.987587                       # Average occupied blocks per tick, per requestor ((Count/Tick))
system.l2cache.tags.avgOccs::writebacks      0.000006                       # Average percentage of cache occupancy ((Ratio/Tick))
system.l2cache.tags.avgOccs::cpu.inst        0.000040                       # Average percentage of cache occupancy ((Ratio/Tick))
system.l2cache.tags.avgOccs::cpu.data        0.999952                       # Average percentage of cache occupancy ((Ratio/Tick))
system.l2cache.tags.avgOccs::total           0.999998                       # Average percentage of cache occupancy ((Ratio/Tick))
system.l2cache.tags.occupanciesTaskId::1024          256                       # Occupied blocks per task id (Count)
system.l2cache.tags.ageTaskId_1024::0               1                       # Occupied blocks per task id, per block age (Count)
system.l2cache.tags.ageTaskId_1024::1              10                       # Occupied blocks per task id, per block age (Count)
system.l2cache.tags.ageTaskId_1024::2              92                       # Occupied blocks per task id, per block age (Count)
system.l2cache.tags.ageTaskId_1024::3             153                       # Occupied blocks per task id, per block age (Count)
system.l2cache.tags.ratioOccsTaskId::1024            1                       # Ratio of occupied blocks and all blocks, per task id (Ratio)
system.l2cache.tags.tagAccesses              38581356                       # Number of tag accesses (Count)
system.l2cache.tags.dataAccesses             38581356                       # Number of data accesses (Count)
system.l2cache.tags.power_state.pwrStateResidencyTicks::UNDEFINED 22021948212000                       # Cumulative time (in ticks) in various power states (Tick)
system.l3bus.transDist::ReadResp                  493                       # Transaction distribution (Count)
system.l3bus.transDist::WritebackDirty        4471714                       # Transaction distribution (Count)
system.l3bus.transDist::CleanEvict            2237154                       # Transaction distribution (Count)
system.l3bus.transDist::ReadExReq             2268744                       # Transaction distribution (Count)
system.l3bus.transDist::ReadExResp            2268744                       # Transaction distribution (Count)
system.l3bus.transDist::ReadSharedReq             493                       # Transaction distribution (Count)
system.l3bus.pktCount_system.l2cache.mem_side_port::system.l3cache.cpu_side_port      6807429                       # Packet count per connected requestor and responder (Count)
system.l3bus.pktSize_system.l2cache.mem_side_port::system.l3cache.cpu_side_port    290415616                       # Cumulative packet size per connected requestor and responder (Byte)
system.l3bus.snoops                           4439913                       # Total snoops (Count)
system.l3bus.snoopTraffic                   141005248                       # Total snoop traffic (Byte)
system.l3bus.snoopFanout::samples             6709150                       # Request fanout histogram (Count)
system.l3bus.snoopFanout::mean               0.000008                       # Request fanout histogram (Count)
system.l3bus.snoopFanout::stdev              0.002863                       # Request fanout histogram (Count)
system.l3bus.snoopFanout::underflows                0      0.00%      0.00% # Request fanout histogram (Count)
system.l3bus.snoopFanout::0                   6709095    100.00%    100.00% # Request fanout histogram (Count)
system.l3bus.snoopFanout::1                        55      0.00%    100.00% # Request fanout histogram (Count)
system.l3bus.snoopFanout::overflows                 0      0.00%    100.00% # Request fanout histogram (Count)
system.l3bus.snoopFanout::min_value                 0                       # Request fanout histogram (Count)
system.l3bus.snoopFanout::max_value                 1                       # Request fanout histogram (Count)
system.l3bus.snoopFanout::total               6709150                       # Request fanout histogram (Count)
system.l3bus.power_state.pwrStateResidencyTicks::UNDEFINED 22021948212000                       # Cumulative time (in ticks) in various power states (Tick)
system.l3bus.reqLayer0.occupancy           9075206000                       # Layer occupancy (ticks) (Tick)
system.l3bus.reqLayer0.utilization                0.0                       # Layer utilization (Ratio)
system.l3bus.respLayer0.occupancy          6807711000                       # Layer occupancy (ticks) (Tick)
system.l3bus.respLayer0.utilization               0.0                       # Layer utilization (Ratio)
system.l3bus.snoop_filter.totRequests         4538192                       # Total number of requests made to the snoop filter. (Count)
system.l3bus.snoop_filter.hitSingleRequests      2268955                       # Number of requests hitting in the snoop filter with a single holder of the requested data. (Count)
system.l3bus.snoop_filter.hitMultiRequests            0                       # Number of requests hitting in the snoop filter with multiple (>1) holders of the requested data. (Count)
system.l3bus.snoop_filter.totSnoops                55                       # Total number of snoops made to the snoop filter. (Count)
system.l3bus.snoop_filter.hitSingleSnoops           55                       # Number of snoops hitting in the snoop filter with a single holder of the requested data. (Count)
system.l3bus.snoop_filter.hitMultiSnoops            0                       # Number of snoops hitting in the snoop filter with multiple (>1) holders of the requested data. (Count)
system.l3cache.demandHits::cpu.inst                15                       # number of demand (read+write) hits (Count)
system.l3cache.demandHits::cpu.data                33                       # number of demand (read+write) hits (Count)
system.l3cache.demandHits::total                   48                       # number of demand (read+write) hits (Count)
system.l3cache.overallHits::cpu.inst               15                       # number of overall hits (Count)
system.l3cache.overallHits::cpu.data               33                       # number of overall hits (Count)
system.l3cache.overallHits::total                  48                       # number of overall hits (Count)
system.l3cache.demandMisses::cpu.inst             351                       # number of demand (read+write) misses (Count)
system.l3cache.demandMisses::cpu.data         2268838                       # number of demand (read+write) misses (Count)
system.l3cache.demandMisses::total            2269189                       # number of demand (read+write) misses (Count)
system.l3cache.overallMisses::cpu.inst            351                       # number of overall misses (Count)
system.l3cache.overallMisses::cpu.data        2268838                       # number of overall misses (Count)
system.l3cache.overallMisses::total           2269189                       # number of overall misses (Count)
system.l3cache.demandMissLatency::cpu.inst     69316000                       # number of demand (read+write) miss ticks (Tick)
system.l3cache.demandMissLatency::cpu.data 463740919000                       # number of demand (read+write) miss ticks (Tick)
system.l3cache.demandMissLatency::total  463810235000                       # number of demand (read+write) miss ticks (Tick)
system.l3cache.overallMissLatency::cpu.inst     69316000                       # number of overall miss ticks (Tick)
system.l3cache.overallMissLatency::cpu.data 463740919000                       # number of overall miss ticks (Tick)
system.l3cache.overallMissLatency::total 463810235000                       # number of overall miss ticks (Tick)
system.l3cache.demandAccesses::cpu.inst           366                       # number of demand (read+write) accesses (Count)
system.l3cache.demandAccesses::cpu.data       2268871                       # number of demand (read+write) accesses (Count)
system.l3cache.demandAccesses::total          2269237                       # number of demand (read+write) accesses (Count)
system.l3cache.overallAccesses::cpu.inst          366                       # number of overall (read+write) accesses (Count)
system.l3cache.overallAccesses::cpu.data      2268871                       # number of overall (read+write) accesses (Count)
system.l3cache.overallAccesses::total         2269237                       # number of overall (read+write) accesses (Count)
system.l3cache.demandMissRate::cpu.inst      0.959016                       # miss rate for demand accesses (Ratio)
system.l3cache.demandMissRate::cpu.data      0.999985                       # miss rate for demand accesses (Ratio)
system.l3cache.demandMissRate::total         0.999979                       # miss rate for demand accesses (Ratio)
system.l3cache.overallMissRate::cpu.inst     0.959016                       # miss rate for overall accesses (Ratio)
system.l3cache.overallMissRate::cpu.data     0.999985                       # miss rate for overall accesses (Ratio)
system.l3cache.overallMissRate::total        0.999979                       # miss rate for overall accesses (Ratio)
system.l3cache.demandAvgMissLatency::cpu.inst 197481.481481                       # average overall miss latency in ticks ((Tick/Count))
system.l3cache.demandAvgMissLatency::cpu.data 204395.782775                       # average overall miss latency in ticks ((Tick/Count))
system.l3cache.demandAvgMissLatency::total 204394.713265                       # average overall miss latency in ticks ((Tick/Count))
system.l3cache.overallAvgMissLatency::cpu.inst 197481.481481                       # average overall miss latency ((Tick/Count))
system.l3cache.overallAvgMissLatency::cpu.data 204395.782775                       # average overall miss latency ((Tick/Count))
system.l3cache.overallAvgMissLatency::total 204394.713265                       # average overall miss latency ((Tick/Count))
system.l3cache.blockedCycles::no_mshrs              0                       # number of cycles access was blocked (Cycle)
system.l3cache.blockedCycles::no_targets            0                       # number of cycles access was blocked (Cycle)
system.l3cache.blockedCauses::no_mshrs              0                       # number of times access was blocked (Count)
system.l3cache.blockedCauses::no_targets            0                       # number of times access was blocked (Count)
system.l3cache.avgBlocked::no_mshrs               nan                       # average number of cycles each access was blocked ((Cycle/Count))
system.l3cache.avgBlocked::no_targets             nan                       # average number of cycles each access was blocked ((Cycle/Count))
system.l3cache.writebacks::writebacks         2203206                       # number of writebacks (Count)
system.l3cache.writebacks::total              2203206                       # number of writebacks (Count)
system.l3cache.demandMshrMisses::cpu.inst          351                       # number of demand (read+write) MSHR misses (Count)
system.l3cache.demandMshrMisses::cpu.data      2268838                       # number of demand (read+write) MSHR misses (Count)
system.l3cache.demandMshrMisses::total        2269189                       # number of demand (read+write) MSHR misses (Count)
system.l3cache.overallMshrMisses::cpu.inst          351                       # number of overall MSHR misses (Count)
system.l3cache.overallMshrMisses::cpu.data      2268838                       # number of overall MSHR misses (Count)
system.l3cache.overallMshrMisses::total       2269189                       # number of overall MSHR misses (Count)
system.l3cache.demandMshrMissLatency::cpu.inst     56329000                       # number of demand (read+write) MSHR miss ticks (Tick)
system.l3cache.demandMshrMissLatency::cpu.data 379793913000                       # number of demand (read+write) MSHR miss ticks (Tick)
system.l3cache.demandMshrMissLatency::total 379850242000                       # number of demand (read+write) MSHR miss ticks (Tick)
system.l3cache.overallMshrMissLatency::cpu.inst     56329000                       # number of overall MSHR miss ticks (Tick)
system.l3cache.overallMshrMissLatency::cpu.data 379793913000                       # number of overall MSHR miss ticks (Tick)
system.l3cache.overallMshrMissLatency::total 379850242000                       # number of overall MSHR miss ticks (Tick)
system.l3cache.demandMshrMissRate::cpu.inst     0.959016                       # mshr miss ratio for demand accesses (Ratio)
system.l3cache.demandMshrMissRate::cpu.data     0.999985                       # mshr miss ratio for demand accesses (Ratio)
system.l3cache.demandMshrMissRate::total     0.999979                       # mshr miss ratio for demand accesses (Ratio)
system.l3cache.overallMshrMissRate::cpu.inst     0.959016                       # mshr miss ratio for overall accesses (Ratio)
system.l3cache.overallMshrMissRate::cpu.data     0.999985                       # mshr miss ratio for overall accesses (Ratio)
system.l3cache.overallMshrMissRate::total     0.999979                       # mshr miss ratio for overall accesses (Ratio)
system.l3cache.demandAvgMshrMissLatency::cpu.inst 160481.481481                       # average overall mshr miss latency ((Tick/Count))
system.l3cache.demandAvgMshrMissLatency::cpu.data 167395.782775                       # average overall mshr miss latency ((Tick/Count))
system.l3cache.demandAvgMshrMissLatency::total 167394.713265                       # average overall mshr miss latency ((Tick/Count))
system.l3cache.overallAvgMshrMissLatency::cpu.inst 160481.481481                       # average overall mshr miss latency ((Tick/Count))
system.l3cache.overallAvgMshrMissLatency::cpu.data 167395.782775                       # average overall mshr miss latency ((Tick/Count))
system.l3cache.overallAvgMshrMissLatency::total 167394.713265                       # average overall mshr miss latency ((Tick/Count))
system.l3cache.replacements                   2203653                       # number of replacements (Count)
system.l3cache.ReadExReq.hits::cpu.data             6                       # number of ReadExReq hits (Count)
system.l3cache.ReadExReq.hits::total                6                       # number of ReadExReq hits (Count)
system.l3cache.ReadExReq.misses::cpu.data      2268738                       # number of ReadExReq misses (Count)
system.l3cache.ReadExReq.misses::total        2268738                       # number of ReadExReq misses (Count)
system.l3cache.ReadExReq.missLatency::cpu.data 463720393000                       # number of ReadExReq miss ticks (Tick)
system.l3cache.ReadExReq.missLatency::total 463720393000                       # number of ReadExReq miss ticks (Tick)
system.l3cache.ReadExReq.accesses::cpu.data      2268744                       # number of ReadExReq accesses(hits+misses) (Count)
system.l3cache.ReadExReq.accesses::total      2268744                       # number of ReadExReq accesses(hits+misses) (Count)
system.l3cache.ReadExReq.missRate::cpu.data     0.999997                       # miss rate for ReadExReq accesses (Ratio)
system.l3cache.ReadExReq.missRate::total     0.999997                       # miss rate for ReadExReq accesses (Ratio)
system.l3cache.ReadExReq.avgMissLatency::cpu.data 204395.744683                       # average ReadExReq miss latency ((Tick/Count))
system.l3cache.ReadExReq.avgMissLatency::total 204395.744683                       # average ReadExReq miss latency ((Tick/Count))
system.l3cache.ReadExReq.mshrMisses::cpu.data      2268738                       # number of ReadExReq MSHR misses (Count)
system.l3cache.ReadExReq.mshrMisses::total      2268738                       # number of ReadExReq MSHR misses (Count)
system.l3cache.ReadExReq.mshrMissLatency::cpu.data 379777087000                       # number of ReadExReq MSHR miss ticks (Tick)
system.l3cache.ReadExReq.mshrMissLatency::total 379777087000                       # number of ReadExReq MSHR miss ticks (Tick)
system.l3cache.ReadExReq.mshrMissRate::cpu.data     0.999997                       # mshr miss rate for ReadExReq accesses (Ratio)
system.l3cache.ReadExReq.mshrMissRate::total     0.999997                       # mshr miss rate for ReadExReq accesses (Ratio)
system.l3cache.ReadExReq.avgMshrMissLatency::cpu.data 167395.744683                       # average ReadExReq mshr miss latency ((Tick/Count))
system.l3cache.ReadExReq.avgMshrMissLatency::total 167395.744683                       # average ReadExReq mshr miss latency ((Tick/Count))
system.l3cache.ReadSharedReq.hits::cpu.inst           15                       # number of ReadSharedReq hits (Count)
system.l3cache.ReadSharedReq.hits::cpu.data           27                       # number of ReadSharedReq hits (Count)
system.l3cache.ReadSharedReq.hits::total           42                       # number of ReadSharedReq hits (Count)
system.l3cache.ReadSharedReq.misses::cpu.inst          351                       # number of ReadSharedReq misses (Count)
system.l3cache.ReadSharedReq.misses::cpu.data          100                       # number of ReadSharedReq misses (Count)
system.l3cache.ReadSharedReq.misses::total          451                       # number of ReadSharedReq misses (Count)
system.l3cache.ReadSharedReq.missLatency::cpu.inst     69316000                       # number of ReadSharedReq miss ticks (Tick)
system.l3cache.ReadSharedReq.missLatency::cpu.data     20526000                       # number of ReadSharedReq miss ticks (Tick)
system.l3cache.ReadSharedReq.missLatency::total     89842000                       # number of ReadSharedReq miss ticks (Tick)
system.l3cache.ReadSharedReq.accesses::cpu.inst          366                       # number of ReadSharedReq accesses(hits+misses) (Count)
system.l3cache.ReadSharedReq.accesses::cpu.data          127                       # number of ReadSharedReq accesses(hits+misses) (Count)
system.l3cache.ReadSharedReq.accesses::total          493                       # number of ReadSharedReq accesses(hits+misses) (Count)
system.l3cache.ReadSharedReq.missRate::cpu.inst     0.959016                       # miss rate for ReadSharedReq accesses (Ratio)
system.l3cache.ReadSharedReq.missRate::cpu.data     0.787402                       # miss rate for ReadSharedReq accesses (Ratio)
system.l3cache.ReadSharedReq.missRate::total     0.914807                       # miss rate for ReadSharedReq accesses (Ratio)
system.l3cache.ReadSharedReq.avgMissLatency::cpu.inst 197481.481481                       # average ReadSharedReq miss latency ((Tick/Count))
system.l3cache.ReadSharedReq.avgMissLatency::cpu.data       205260                       # average ReadSharedReq miss latency ((Tick/Count))
system.l3cache.ReadSharedReq.avgMissLatency::total 199206.208426                       # average ReadSharedReq miss latency ((Tick/Count))
system.l3cache.ReadSharedReq.mshrMisses::cpu.inst          351                       # number of ReadSharedReq MSHR misses (Count)
[...]
system.mem_ctrl.wrPerTurnAround::stdev       0.002036                       # Writes before turning the bus around for reads (Count)
system.mem_ctrl.wrPerTurnAround::18            241157    100.00%    100.00% # Writes before turning the bus around for reads (Count)
system.mem_ctrl.wrPerTurnAround::19                 1      0.00%    100.00% # Writes before turning the bus around for reads (Count)
system.mem_ctrl.wrPerTurnAround::total         241158                       # Writes before turning the bus around for reads (Count)
system.mem_ctrl.bytesReadWrQ                        0                       # Total number of bytes read from write queue (Byte)
system.mem_ctrl.bytesReadSys                145228096                       # Total read bytes from the system interface side (Byte)
system.mem_ctrl.bytesWrittenSys             138908032                       # Total written bytes from the system interface side (Byte)
system.mem_ctrl.avgRdBWSys               6594697.91691108                       # Average system read bandwidth in Byte/s ((Byte/Second))
system.mem_ctrl.avgWrBWSys               6307708.59429719                       # Average system write bandwidth in Byte/s ((Byte/Second))
system.mem_ctrl.totGap                   22021946798000                       # Total gap between requests (Tick)
system.mem_ctrl.avgGap                     4960314.64                       # Average gap between requests ((Tick/Count))
system.mem_ctrl.requestorReadBytes::cpu.inst        22464                       # Per-requestor bytes read from memory (Byte)
system.mem_ctrl.requestorReadBytes::cpu.data    145205632                       # Per-requestor bytes read from memory (Byte)
system.mem_ctrl.requestorWriteBytes::writebacks    138907040                       # Per-requestor bytes write to memory (Byte)
system.mem_ctrl.requestorReadRate::cpu.inst 1020.073237106203                       # Per-requestor bytes read from memory rate ((Byte/Second))
system.mem_ctrl.requestorReadRate::cpu.data 6593677.843673969619                       # Per-requestor bytes read from memory rate ((Byte/Second))
system.mem_ctrl.requestorWriteRate::writebacks 6307663.548328028060                       # Per-requestor bytes write to memory rate ((Byte/Second))
system.mem_ctrl.requestorReadAccesses::cpu.inst          702                       # Per-requestor read serviced memory accesses (Count)
system.mem_ctrl.requestorReadAccesses::cpu.data      4537676                       # Per-requestor read serviced memory accesses (Count)
system.mem_ctrl.requestorWriteAccesses::writebacks      4340876                       # Per-requestor write serviced memory accesses (Count)
system.mem_ctrl.requestorReadTotalLat::cpu.inst     23855000                       # Per-requestor read total memory access latency (Tick)
system.mem_ctrl.requestorReadTotalLat::cpu.data 185571812000                       # Per-requestor read total memory access latency (Tick)
system.mem_ctrl.requestorWriteTotalLat::writebacks 499699504788000                       # Per-requestor write total memory access latency (Tick)
system.mem_ctrl.requestorReadAvgLat::cpu.inst     33981.48                       # Per-requestor read average memory access latency ((Tick/Count))
system.mem_ctrl.requestorReadAvgLat::cpu.data     40895.78                       # Per-requestor read average memory access latency ((Tick/Count))
system.mem_ctrl.requestorWriteAvgLat::writebacks 115114899.57                       # Per-requestor write average memory access latency ((Tick/Count))
system.mem_ctrl.dram.bytesRead::cpu.inst        22464                       # Number of bytes read from this memory (Byte)
system.mem_ctrl.dram.bytesRead::cpu.data    145205632                       # Number of bytes read from this memory (Byte)
system.mem_ctrl.dram.bytesRead::total       145228096                       # Number of bytes read from this memory (Byte)
system.mem_ctrl.dram.bytesInstRead::cpu.inst        22464                       # Number of instructions bytes read from this memory (Byte)
system.mem_ctrl.dram.bytesInstRead::total        22464                       # Number of instructions bytes read from this memory (Byte)
system.mem_ctrl.dram.bytesWritten::writebacks    138908032                       # Number of bytes written to this memory (Byte)
system.mem_ctrl.dram.bytesWritten::total    138908032                       # Number of bytes written to this memory (Byte)
system.mem_ctrl.dram.numReads::cpu.inst           351                       # Number of read requests responded to by this memory (Count)
system.mem_ctrl.dram.numReads::cpu.data       2268838                       # Number of read requests responded to by this memory (Count)
system.mem_ctrl.dram.numReads::total          2269189                       # Number of read requests responded to by this memory (Count)
system.mem_ctrl.dram.numWrites::writebacks      2170438                       # Number of write requests responded to by this memory (Count)
system.mem_ctrl.dram.numWrites::total         2170438                       # Number of write requests responded to by this memory (Count)
system.mem_ctrl.dram.bwRead::cpu.inst            1020                       # Total read bandwidth from this memory ((Byte/Second))
system.mem_ctrl.dram.bwRead::cpu.data         6593678                       # Total read bandwidth from this memory ((Byte/Second))
system.mem_ctrl.dram.bwRead::total            6594698                       # Total read bandwidth from this memory ((Byte/Second))
system.mem_ctrl.dram.bwInstRead::cpu.inst         1020                       # Instruction read bandwidth from this memory ((Byte/Second))
system.mem_ctrl.dram.bwInstRead::total           1020                       # Instruction read bandwidth from this memory ((Byte/Second))
system.mem_ctrl.dram.bwWrite::writebacks      6307709                       # Write bandwidth from this memory ((Byte/Second))
system.mem_ctrl.dram.bwWrite::total           6307709                       # Write bandwidth from this memory ((Byte/Second))
system.mem_ctrl.dram.bwTotal::writebacks      6307709                       # Total bandwidth to/from this memory ((Byte/Second))
system.mem_ctrl.dram.bwTotal::cpu.inst           1020                       # Total bandwidth to/from this memory ((Byte/Second))
system.mem_ctrl.dram.bwTotal::cpu.data        6593678                       # Total bandwidth to/from this memory ((Byte/Second))
system.mem_ctrl.dram.bwTotal::total          12902407                       # Total bandwidth to/from this memory ((Byte/Second))
system.mem_ctrl.dram.readBursts               4538378                       # Number of DRAM read bursts (Count)
system.mem_ctrl.dram.writeBursts              4340845                       # Number of DRAM write bursts (Count)
system.mem_ctrl.dram.perBankRdBursts::0        567324                       # Per bank write bursts (Count)
system.mem_ctrl.dram.perBankRdBursts::1        567440                       # Per bank write bursts (Count)
system.mem_ctrl.dram.perBankRdBursts::2        567318                       # Per bank write bursts (Count)
system.mem_ctrl.dram.perBankRdBursts::3        567276                       # Per bank write bursts (Count)
system.mem_ctrl.dram.perBankRdBursts::4        567206                       # Per bank write bursts (Count)
system.mem_ctrl.dram.perBankRdBursts::5        567192                       # Per bank write bursts (Count)
system.mem_ctrl.dram.perBankRdBursts::6        567234                       # Per bank write bursts (Count)
system.mem_ctrl.dram.perBankRdBursts::7        567388                       # Per bank write bursts (Count)
system.mem_ctrl.dram.perBankWrBursts::0        542592                       # Per bank write bursts (Count)
system.mem_ctrl.dram.perBankWrBursts::1        542620                       # Per bank write bursts (Count)
system.mem_ctrl.dram.perBankWrBursts::2        542614                       # Per bank write bursts (Count)
system.mem_ctrl.dram.perBankWrBursts::3        542656                       # Per bank write bursts (Count)
system.mem_ctrl.dram.perBankWrBursts::4        542525                       # Per bank write bursts (Count)
system.mem_ctrl.dram.perBankWrBursts::5        542586                       # Per bank write bursts (Count)
system.mem_ctrl.dram.perBankWrBursts::6        542600                       # Per bank write bursts (Count)
system.mem_ctrl.dram.perBankWrBursts::7        542652                       # Per bank write bursts (Count)
system.mem_ctrl.dram.totQLat              94828107000                       # Total ticks spent queuing (Tick)
system.mem_ctrl.dram.totBusLat            22691890000                       # Total ticks spent in databus transfers (Tick)
system.mem_ctrl.dram.totMemAccLat        185595667000                       # Total ticks spent from burst creation until serviced by the DRAM (Tick)
system.mem_ctrl.dram.avgQLat                 20894.71                       # Average queueing delay per DRAM burst ((Tick/Count))
system.mem_ctrl.dram.avgBusLat                5000.00                       # Average bus latency per DRAM burst ((Tick/Count))
system.mem_ctrl.dram.avgMemAccLat            40894.71                       # Average memory access latency per DRAM burst ((Tick/Count))
system.mem_ctrl.dram.readRowHits              2269523                       # Number of row buffer hits during reads (Count)
system.mem_ctrl.dram.writeRowHits             3849285                       # Number of row buffer hits during writes (Count)
system.mem_ctrl.dram.readRowHitRate             50.01                       # Row buffer hit rate for reads (Ratio)
system.mem_ctrl.dram.writeRowHitRate            88.68                       # Row buffer hit rate for writes (Ratio)
system.mem_ctrl.dram.bytesPerActivate::samples      2760414                       # Bytes accessed per row activation (Byte)
system.mem_ctrl.dram.bytesPerActivate::mean   102.932050                       # Bytes accessed per row activation (Byte)
system.mem_ctrl.dram.bytesPerActivate::gmean    77.054255                       # Bytes accessed per row activation (Byte)
system.mem_ctrl.dram.bytesPerActivate::stdev   123.401161                       # Bytes accessed per row activation (Byte)
system.mem_ctrl.dram.bytesPerActivate::0-63        15920      0.58%      0.58% # Bytes accessed per row activation (Byte)
system.mem_ctrl.dram.bytesPerActivate::64-127      2480812     89.87%     90.45% # Bytes accessed per row activation (Byte)
system.mem_ctrl.dram.bytesPerActivate::128-191         9113      0.33%     90.78% # Bytes accessed per row activation (Byte)
system.mem_ctrl.dram.bytesPerActivate::192-255         9100      0.33%     91.11% # Bytes accessed per row activation (Byte)
system.mem_ctrl.dram.bytesPerActivate::256-319         8928      0.32%     91.43% # Bytes accessed per row activation (Byte)
system.mem_ctrl.dram.bytesPerActivate::320-383         8377      0.30%     91.73% # Bytes accessed per row activation (Byte)
system.mem_ctrl.dram.bytesPerActivate::384-447         8852      0.32%     92.06% # Bytes accessed per row activation (Byte)
system.mem_ctrl.dram.bytesPerActivate::448-511        11825      0.43%     92.48% # Bytes accessed per row activation (Byte)
system.mem_ctrl.dram.bytesPerActivate::512-575       207487      7.52%    100.00% # Bytes accessed per row activation (Byte)
system.mem_ctrl.dram.bytesPerActivate::total      2760414                       # Bytes accessed per row activation (Byte)
system.mem_ctrl.dram.bytesRead              145228096                       # Total bytes read (Byte)
system.mem_ctrl.dram.bytesWritten           138907040                       # Total bytes written (Byte)
system.mem_ctrl.dram.avgRdBW                 6.594698                       # Average DRAM read bandwidth in MiBytes/s ((Byte/Second))
system.mem_ctrl.dram.avgWrBW                 6.307664                       # Average DRAM write bandwidth in MiBytes/s ((Byte/Second))
system.mem_ctrl.dram.peakBW                   6400.00                       # Theoretical peak bandwidth in MiByte/s ((Byte/Second))
system.mem_ctrl.dram.busUtil                     0.20                       # Data bus utilization in percentage (Ratio)
system.mem_ctrl.dram.busUtilRead                 0.10                       # Data bus utilization in percentage for reads (Ratio)
system.mem_ctrl.dram.busUtilWrite                0.10                       # Data bus utilization in percentage for writes (Ratio)
system.mem_ctrl.dram.pageHitRate                68.91                       # Row buffer hit rate, read and write combined (Ratio)
system.mem_ctrl.dram.power_state.pwrStateResidencyTicks::UNDEFINED 22021948212000                       # Cumulative time (in ticks) in various power states (Tick)
system.mem_ctrl.dram.rank0.actEnergy       4927340775                       # Energy for activate commands per rank (pJ) (Joule)
system.mem_ctrl.dram.rank0.preEnergy     2596997491.220669                       # Energy for precharge commands per rank (pJ) (Joule)
system.mem_ctrl.dram.rank0.readEnergy      5337132528                       # Energy for read commands per rank (pJ) (Joule)
system.mem_ctrl.dram.rank0.writeEnergy     4063030920                       # Energy for write commands per rank (pJ) (Joule)
system.mem_ctrl.dram.rank0.refreshEnergy 137169150300                       # Energy for refresh commands per rank (pJ) (Joule)
system.mem_ctrl.dram.rank0.actBackEnergy 220394567539.500000                       # Energy for active background per rank (pJ) (Joule)
system.mem_ctrl.dram.rank0.preBackEnergy 556776599440.805664                       # Energy for precharge background per rank (pJ) (Joule)
system.mem_ctrl.dram.rank0.actPowerDownEnergy            0                       # Energy for active power-down per rank (pJ) (Joule)
system.mem_ctrl.dram.rank0.prePowerDownEnergy            0                       # Energy for precharge power-down per rank (pJ) (Joule)
system.mem_ctrl.dram.rank0.selfRefreshEnergy            0                       # Energy for self refresh per rank (pJ) (Joule)
system.mem_ctrl.dram.rank0.totalEnergy   931264818993.054810                       # Total energy per rank (pJ) (Joule)
system.mem_ctrl.dram.rank0.averagePower     42.288031                       # Core power per rank (mW) (Watt)
system.mem_ctrl.dram.rank0.totalIdleTime            0                       # Total Idle time Per DRAM Rank (Tick)
system.mem_ctrl.dram.rank0.pwrStateTime::IDLE 16904391240000                       # Time in different power states (Tick)
system.mem_ctrl.dram.rank0.pwrStateTime::REF 737468550000                       # Time in different power states (Tick)
system.mem_ctrl.dram.rank0.pwrStateTime::SREF            0                       # Time in different power states (Tick)
system.mem_ctrl.dram.rank0.pwrStateTime::PRE_PDN            0                       # Time in different power states (Tick)
system.mem_ctrl.dram.rank0.pwrStateTime::ACT 4380088422000                       # Time in different power states (Tick)
system.mem_ctrl.dram.rank0.pwrStateTime::ACT_PDN            0                       # Time in different power states (Tick)
system.mem_ctrl.power_state.pwrStateResidencyTicks::UNDEFINED 22021948212000                       # Cumulative time (in ticks) in various power states (Tick)
system.membus.transDist::ReadResp                 451                       # Transaction distribution (Count)
system.membus.transDist::WritebackDirty       2170438                       # Transaction distribution (Count)
system.membus.transDist::CleanEvict               421                       # Transaction distribution (Count)
system.membus.transDist::ReadExReq            2268738                       # Transaction distribution (Count)
system.membus.transDist::ReadExResp           2268738                       # Transaction distribution (Count)
system.membus.transDist::ReadSharedReq            451                       # Transaction distribution (Count)
system.membus.pktCount_system.l4cache.mem_side_port::system.mem_ctrl.port      6709237                       # Packet count per connected requestor and responder (Count)
system.membus.pktCount::total                 6709237                       # Packet count per connected requestor and responder (Count)
system.membus.pktSize_system.l4cache.mem_side_port::system.mem_ctrl.port    284136128                       # Cumulative packet size per connected requestor and responder (Byte)
system.membus.pktSize::total                284136128                       # Cumulative packet size per connected requestor and responder (Byte)
system.membus.snoops                                0                       # Total snoops (Count)
system.membus.snoopTraffic                          0                       # Total snoop traffic (Byte)
system.membus.snoopFanout::samples            2269189                       # Request fanout histogram (Count)
system.membus.snoopFanout::mean                     0                       # Request fanout histogram (Count)
system.membus.snoopFanout::stdev                    0                       # Request fanout histogram (Count)
system.membus.snoopFanout::underflows               0      0.00%      0.00% # Request fanout histogram (Count)
system.membus.snoopFanout::0                  2269189    100.00%    100.00% # Request fanout histogram (Count)
system.membus.snoopFanout::1                        0      0.00%    100.00% # Request fanout histogram (Count)
system.membus.snoopFanout::overflows                0      0.00%    100.00% # Request fanout histogram (Count)
system.membus.snoopFanout::min_value                0                       # Request fanout histogram (Count)
system.membus.snoopFanout::max_value                0                       # Request fanout histogram (Count)
system.membus.snoopFanout::total              2269189                       # Request fanout histogram (Count)
system.membus.power_state.pwrStateResidencyTicks::UNDEFINED 22021948212000                       # Cumulative time (in ticks) in various power states (Tick)
system.membus.reqLayer0.occupancy         13121800000                       # Layer occupancy (ticks) (Tick)
system.membus.reqLayer0.utilization               0.0                       # Layer utilization (Ratio)
system.membus.respLayer0.occupancy        11345945000                       # Layer occupancy (ticks) (Tick)
system.membus.respLayer0.utilization              0.0                       # Layer utilization (Ratio)
system.membus.snoop_filter.totRequests        4440048                       # Total number of requests made to the snoop filter. (Count)
system.membus.snoop_filter.hitSingleRequests      2170859                       # Number of requests hitting in the snoop filter with a single holder of the requested data. (Count)
system.membus.snoop_filter.hitMultiRequests            0                       # Number of requests hitting in the snoop filter with multiple (>1) holders of the requested data. (Count)
system.membus.snoop_filter.totSnoops                0                       # Total number of snoops made to the snoop filter. (Count)
system.membus.snoop_filter.hitSingleSnoops            0                       # Number of snoops hitting in the snoop filter with a single holder of the requested data. (Count)
system.membus.snoop_filter.hitMultiSnoops            0                       # Number of snoops hitting in the snoop filter with multiple (>1) holders of the requested data. (Count)
system.workload.inst.arm                            0                       # number of arm instructions executed (Count)
system.workload.inst.quiesce                        0                       # number of quiesce instructions executed (Count)

---------- End Simulation Statistics   ----------
